*Heading
** Job name: Moron2 Model name: Prep1F
** Generated by: Abaqus/CAE 2017
*Preprint, echo=NO, model=NO, history=NO, contact=NO
** ----------------------------------------------------------------
**
** PART INSTANCE: BLANKINST
**
*Node
      1,           0., 0.00999999978
      2,           1., 0.00999999978
      3,           2., 0.00999999978
      4,           3., 0.00999999978
      5,           4., 0.00999999978
      6,           5., 0.00999999978
      7,           6., 0.00999999978
      8,           7., 0.00999999978
      9,           8., 0.00999999978
     10,           9., 0.00999999978
     11,          10., 0.00999999978
     12,          11., 0.00999999978
     13,          12., 0.00999999978
     14,          13., 0.00999999978
     15,          14., 0.00999999978
     16,         14.5,  0.200000003
     17,           0.,  0.991666675
     18,           1.,  0.991666675
     19,           2.,  0.991666675
     20,           3.,  0.991666675
** ... 476 like lines cut
*Element, type=CPS4
  1,   1,   2,  18,  17
  2,   2,   3,  19,  18
  3,   3,   4,  20,  19
  4,   4,   5,  21,  20
  5,   5,   6,  22,  21
  6,   6,   7,  23,  22
  7,   7,   8,  24,  23
  8,   8,   9,  25,  24
  9,   9,  10,  26,  25
 10,  10,  11,  27,  26
 11,  11,  12,  28,  27
 12,  12,  13,  29,  28
 13,  13,  14,  30,  29
 14,  14,  15,  31,  30
 15,  15,  16,  32,  31
 16,  17,  18,  34,  33
 17,  18,  19,  35,  34
 18,  19,  20,  36,  35
 19,  20,  21,  37,  36
 20,  21,  22,  38,  37
** ... 430 like lines cut
** ----------------------------------------------------------------
**
** PART INSTANCE: Part-4-1
**
*Node
    497,          15., 0.00899999961
    498,          14., 0.00899999961
    499,          13., 0.00899999961
    500,          12., 0.00899999961
    501,          11., 0.00899999961
    502,          10., 0.00899999961
    503,           9., 0.00899999961
    504,           8., 0.00899999961
    505,           7., 0.00899999961
    506,           6., 0.00899999961
    507,           5., 0.00899999961
    508,           4., 0.00899999961
    509,           3., 0.00899999961
    510,           2., 0.00899999961
    511,           1., 0.00899999961
    512,           0., 0.00899999961
    513,          15.,  -1.00100005
    514,          14.,  -1.00100005
    515,          13.,  -1.00100005
    516,          12.,  -1.00100005
** ... 12 like lines cut
*Element, type=CPS4R
451, 497, 498, 514, 513
452, 498, 499, 515, 514
453, 499, 500, 516, 515
454, 500, 501, 517, 516
455, 501, 502, 518, 517
456, 502, 503, 519, 518
457, 503, 504, 520, 519
458, 504, 505, 521, 520
459, 505, 506, 522, 521
460, 506, 507, 523, 522
461, 507, 508, 524, 523
462, 508, 509, 525, 524
463, 509, 510, 526, 525
464, 510, 511, 527, 526
465, 511, 512, 528, 527
** ----------------------------------------------------------------
**
** PART INSTANCE: Part-4-Copy-1
**
*Node
    529,           0.,   29.7399998
    530,           1.,   29.7399998
    531,           2.,   29.7399998
    532,           3.,   29.7399998
    533,           4.,   29.7399998
    534,           5.,   29.7399998
    535,           6.,   29.7399998
    536,           7.,   29.7399998
    537,           8.,   29.7399998
    538,           9.,   29.7399998
    539,          10.,   29.7399998
    540,          11.,   29.7399998
    541,          12.,   29.7399998
    542,          13.,   29.7399998
    543,          14.,   29.7399998
    544,          15.,   29.7399998
    545,           0.,   30.7399998
    546,           1.,   30.7399998
    547,           2.,   30.7399998
    548,           3.,   30.7399998
** ... 12 like lines cut
*Element, type=CPS4R
466, 529, 530, 546, 545
467, 530, 531, 547, 546
468, 531, 532, 548, 547
469, 532, 533, 549, 548
470, 533, 534, 550, 549
471, 534, 535, 551, 550
472, 535, 536, 552, 551
473, 536, 537, 553, 552
474, 537, 538, 554, 553
475, 538, 539, 555, 554
476, 539, 540, 556, 555
477, 540, 541, 557, 556
478, 541, 542, 558, 557
479, 542, 543, 559, 558
480, 543, 544, 560, 559
*System
*Elset, elset=BlockEl, generate
   1,  450,    1
*Nset, nset=Bot, generate
  1,  15,   1
*Nset, nset=BotDieAll, generate
497, 528,   1
*Nset, nset=BotDieSurf, generate
497, 512,   1
*Elset, elset=BotEl, generate
451, 465,   1
*Nset, nset=Left, generate
   1,  481,   16
*Nset, nset=Right, generate
  16,  496,   16
*Nset, nset=Set1, generate
  1,  14,   1
*Nset, nset=Top, generate
 481,  496,    1
*Nset, nset=TopDieAll, generate
529, 560,   1
*Nset, nset=TopDieSurf, generate
529, 544,   1
*Elset, elset=TopEl, generate
466, 480,   1
*Nset, nset=Touch, generate
  1,  15,   1
**
** MATERIALS
**
*Material, name=STEEL
*Elastic
207000., 0.3
*Plastic
 400.,    0.
 680., 0.015
 710., 0.032
 715., 0.109
 785., 0.214
 865.,  0.39
 915.,  0.55
1250.,  2.05
